[Format]      =  4.0
[Frequency]   =  0
[Precision]   =  1e-010
[MinAngle]    =  30
[DoSmartMesh] =  1
[Depth]       =  1
[LengthUnits] =  millimeters
[ProblemType] =  axisymmetric
[Coordinates] =  cartesian
[ACSolver]    =  0
[PrevType]    =  0
[PrevSoln]    =  ""
[Comment]     =  "Add comments here."
[PointProps]   = 0
[BdryProps]   = 1
  <BeginBdry>
    <BdryName> = "A=0"
    <BdryType> = 0
    <A_0> = 0
    <A_1> = 0
    <A_2> = 0
    <Phi> = 0
    <c0> = 0
    <c0i> = 0
    <c1> = 0
    <c1i> = 0
    <Mu_ssd> = 0
    <Sigma_ssd> = 0
    <innerangle> = 0
    <outerangle> = 0
  <EndBdry>
[BlockProps]  = 12
  <BeginBlock>
    <BlockName> = "u1"
    <Mu_x> = 0.45771938053149852
    <Mu_y> = 0.45771938053149852
    <H_c> = 0
    <H_cAngle> = 0
    <J_re> = 0
    <J_im> = 0
    <Sigma> = 0
    <d_lam> = 0
    <Phi_h> = 0
    <Phi_hx> = 0
    <Phi_hy> = 0
    <LamType> = 0
    <LamFill> = 1
    <NStrands> = 0
    <WireD> = 0
    <BHPoints> = 0
  <EndBlock>
  <BeginBlock>
    <BlockName> = "u2"
    <Mu_x> = 6.1523830598340714
    <Mu_y> = 6.1523830598340714
    <H_c> = 0
    <H_cAngle> = 0
    <J_re> = 0
    <J_im> = 0
    <Sigma> = 0
    <d_lam> = 0
    <Phi_h> = 0
    <Phi_hx> = 0
    <Phi_hy> = 0
    <LamType> = 0
    <LamFill> = 1
    <NStrands> = 0
    <WireD> = 0
    <BHPoints> = 0
  <EndBlock>
  <BeginBlock>
    <BlockName> = "u3"
    <Mu_x> = 0.095195354604947782
    <Mu_y> = 0.095195354604947782
    <H_c> = 0
    <H_cAngle> = 0
    <J_re> = 0
    <J_im> = 0
    <Sigma> = 0
    <d_lam> = 0
    <Phi_h> = 0
    <Phi_hx> = 0
    <Phi_hy> = 0
    <LamType> = 0
    <LamFill> = 1
    <NStrands> = 0
    <WireD> = 0
    <BHPoints> = 0
  <EndBlock>
  <BeginBlock>
    <BlockName> = "u4"
    <Mu_x> = 19.795020339331071
    <Mu_y> = 19.795020339331071
    <H_c> = 0
    <H_cAngle> = 0
    <J_re> = 0
    <J_im> = 0
    <Sigma> = 0
    <d_lam> = 0
    <Phi_h> = 0
    <Phi_hx> = 0
    <Phi_hy> = 0
    <LamType> = 0
    <LamFill> = 1
    <NStrands> = 0
    <WireD> = 0
    <BHPoints> = 0
  <EndBlock>
  <BeginBlock>
    <BlockName> = "u5"
    <Mu_x> = 0.049582139704807293
    <Mu_y> = 0.049582139704807293
    <H_c> = 0
    <H_cAngle> = 0
    <J_re> = 0
    <J_im> = 0
    <Sigma> = 0
    <d_lam> = 0
    <Phi_h> = 0
    <Phi_hx> = 0
    <Phi_hy> = 0
    <LamType> = 0
    <LamFill> = 1
    <NStrands> = 0
    <WireD> = 0
    <BHPoints> = 0
  <EndBlock>
  <BeginBlock>
    <BlockName> = "u6"
    <Mu_x> = 60.002017784589462
    <Mu_y> = 60.002017784589462
    <H_c> = 0
    <H_cAngle> = 0
    <J_re> = 0
    <J_im> = 0
    <Sigma> = 0
    <d_lam> = 0
    <Phi_h> = 0
    <Phi_hx> = 0
    <Phi_hy> = 0
    <LamType> = 0
    <LamFill> = 1
    <NStrands> = 0
    <WireD> = 0
    <BHPoints> = 0
  <EndBlock>
  <BeginBlock>
    <BlockName> = "u7"
    <Mu_x> = 0.031639182082296755
    <Mu_y> = 0.031639182082296755
    <H_c> = 0
    <H_cAngle> = 0
    <J_re> = 0
    <J_im> = 0
    <Sigma> = 0
    <d_lam> = 0
    <Phi_h> = 0
    <Phi_hx> = 0
    <Phi_hy> = 0
    <LamType> = 0
    <LamFill> = 1
    <NStrands> = 0
    <WireD> = 0
    <BHPoints> = 0
  <EndBlock>
  <BeginBlock>
    <BlockName> = "u8"
    <Mu_x> = 554.88936966370818
    <Mu_y> = 554.88936966370818
    <H_c> = 0
    <H_cAngle> = 0
    <J_re> = 0
    <J_im> = 0
    <Sigma> = 0
    <d_lam> = 0
    <Phi_h> = 0
    <Phi_hx> = 0
    <Phi_hy> = 0
    <LamType> = 0
    <LamFill> = 1
    <NStrands> = 0
    <WireD> = 0
    <BHPoints> = 0
  <EndBlock>
  <BeginBlock>
    <BlockName> = "Air "
    <Mu_x> = 1
    <Mu_y> = 1
    <H_c> = 0
    <H_cAngle> = 0
    <J_re> = 0
    <J_im> = 0
    <Sigma> = 0
    <d_lam> = 0
    <Phi_h> = 0
    <Phi_hx> = 0
    <Phi_hy> = 0
    <LamType> = 0
    <LamFill> = 1
    <NStrands> = 0
    <WireD> = 0
    <BHPoints> = 0
  <EndBlock>
  <BeginBlock>
    <BlockName> = "Coil "
    <Mu_x> = 1
    <Mu_y> = 1
    <H_c> = 0
    <H_cAngle> = 0
    <J_re> = 0
    <J_im> = 0
    <Sigma> = 37.700000000000003
    <d_lam> = 0
    <Phi_h> = 0
    <Phi_hx> = 0
    <Phi_hy> = 0
    <LamType> = 0
    <LamFill> = 1
    <NStrands> = 0
    <WireD> = 0
    <BHPoints> = 0
  <EndBlock>
  <BeginBlock>
    <BlockName> = "Hiperco-50"
    <Mu_x> = 2100
    <Mu_y> = 2100
    <H_c> = 0
    <H_cAngle> = 0
    <J_re> = 0
    <J_im> = 0
    <Sigma> = 0
    <d_lam> = 0
    <Phi_h> = 0
    <Phi_hx> = 0
    <Phi_hy> = 0
    <LamType> = 0
    <LamFill> = 1
    <NStrands> = 0
    <WireD> = 0
    <BHPoints> = 0
  <EndBlock>
  <BeginBlock>
    <BlockName> = "plasma"
    <Mu_x> = 1
    <Mu_y> = 1
    <H_c> = 0
    <H_cAngle> = 0
    <J_re> = 0.001
    <J_im> = 0
    <Sigma> = 0
    <d_lam> = 0
    <Phi_h> = 0
    <Phi_hx> = 0
    <Phi_hy> = 0
    <LamType> = 0
    <LamFill> = 1
    <NStrands> = 0
    <WireD> = 0
    <BHPoints> = 0
  <EndBlock>
[CircuitProps]  = 3
  <BeginCircuit>
    <CircuitName> = "icoil_in_int "
    <TotalAmps_re> = 5.5
    <TotalAmps_im> = 0
    <CircuitType> = 1
  <EndCircuit>
  <BeginCircuit>
    <CircuitName> = "icoil_in_ext "
    <TotalAmps_re> = 2.2000000000000002
    <TotalAmps_im> = 0
    <CircuitType> = 1
  <EndCircuit>
  <BeginCircuit>
    <CircuitName> = "icoil_trim_out "
    <TotalAmps_re> = -0.20000000000000001
    <TotalAmps_im> = 0
    <CircuitType> = 1
  <EndCircuit>
[NumPoints] = 58
10	-24.5	0	0
10	22.5	0	0
18	22.5	0	0
26	22.5	0	0
26	18.5	0	0
16.199999999999999	18.5	0	0
16.199999999999999	-18.699999999999999	0	0
29.199999999999999	-18.699999999999999	0	0
29.199999999999999	18.799999999999997	0	0
31	18.799999999999997	0	0
31	-18.699999999999999	0	0
54	-18.699999999999999	0	0
54	18.799999999999997	0	0
55.799999999999997	18.799999999999997	0	0
55.799999999999997	-18.699999999999999	0	0
70	-18.699999999999999	0	0
70	18.5	0	0
58.200000000000003	18.5	0	0
58.200000000000003	22.5	0	0
66.200000000000003	22.5	0	0
74	22.5	0	0
74	-24.5	0	0
32	-6.6999999999999993	0	0
32	23.299999999999997	0	0
35	19.799999999999997	0	0
35	-3.6999999999999993	0	0
50	-3.6999999999999993	0	0
50	19.799999999999997	0	0
53	23.299999999999997	0	0
53	-6.6999999999999993	0	0
16.199999999999999	-18.5	0	0
26.199999999999999	18.5	0	0
26.199999999999999	-18.5	0	0
60	-18.5	0	0
60	18.5	0	0
70	-18.5	0	0
35	1.3000000000000007	0	0
50	1.3000000000000007	0	0
35	55.299999999999997	0	0
50	55.299999999999997	0	0
0	-187.00000000000003	0	0
0	187.00000000000003	0	0
0	-170	0	0
0	170	0	0
0	-172.12500000000003	0	0
0	172.12500000000003	0	0
0	-174.25	0	0
0	174.25	0	0
0	-176.375	0	0
0	176.375	0	0
0	-178.5	0	0
0	178.5	0	0
0	-180.62499999999997	0	0
0	180.62499999999997	0	0
0	-182.75000000000003	0	0
0	182.75000000000003	0	0
0	-184.875	0	0
0	184.875	0	0
[NumSegments] = 60
0	1	-1	0	0	0
1	2	-1	0	0	0
2	3	-1	0	0	0
3	4	-1	0	0	0
4	5	-1	0	0	0
5	30	-1	0	0	0
6	7	-1	0	0	0
7	8	-1	0	0	0
8	9	-1	0	0	0
9	10	-1	0	0	0
11	12	-1	0	0	0
12	13	-1	0	0	0
13	14	-1	0	0	0
14	15	-1	0	0	0
15	35	-1	0	0	0
16	34	-1	0	0	0
17	18	-1	0	0	0
18	19	-1	0	0	0
19	20	-1	0	0	0
20	21	-1	0	0	0
0	21	-1	0	0	0
22	23	-1	0	0	0
23	24	-1	0	0	0
24	36	-1	0	0	0
25	26	-1	0	0	0
26	37	-1	0	0	0
27	28	-1	0	0	0
28	29	-1	0	0	0
22	29	-1	0	0	0
30	6	-1	0	0	0
4	31	-1	0	0	0
31	32	-1	0	0	0
30	32	-1	0	0	0
34	17	-1	0	0	0
33	34	-1	0	0	0
35	16	-1	0	0	0
33	35	-1	0	0	0
36	25	-1	0	0	0
37	27	-1	0	0	0
36	37	-1	0	0	0
38	39	-1	0	0	0
40	56	-1	0	0	0
42	43	-1	0	0	0
43	45	-1	0	0	0
44	42	-1	0	0	0
45	47	-1	0	0	0
46	44	-1	0	0	0
47	49	-1	0	0	0
48	46	-1	0	0	0
49	51	-1	0	0	0
50	48	-1	0	0	0
51	53	-1	0	0	0
52	50	-1	0	0	0
53	55	-1	0	0	0
54	52	-1	0	0	0
55	57	-1	0	0	0
56	54	-1	0	0	0
57	41	-1	0	0	0
24	27	-1	0	0	0
10	11	-1	0	0	0
[NumArcSegments] = 10
42	43	180	1	0	0	0	1
44	45	180	1	0	0	0	1
46	47	180	1	0	0	0	1
48	49	180	1	0	0	0	1
50	51	180	1	0	0	0	1
52	53	180	1	0	0	0	1
54	55	180	1	0	0	0	1
56	57	180	1	0	0	0	1
40	41	180	1	1	0	0	1
28	23	180	1	0	0	0	1
[NumHoles] = 0
[NumBlockLabels] = 16
168.46367624965086	29.704691392149275	1	-1	0	0	0	1	0
162.74301576235951	59.233613572214253	2	-1	0	0	0	1	0
151.82507860095942	87.656249999999986	3	-1	0	0	0	1	0
135.92501087592368	114.05462649375531	4	-1	0	0	0	1	0
115.42055016433919	137.55285531755149	5	-1	0	0	0	1	0
90.843750000000028	157.34599055008522	6	-1	0	0	0	1	0
62.867577595049504	172.72724985820977	7	-1	0	0	0	1	0
32.28770803494487	183.11269157570743	8	-1	0	0	0	1	0
10.5	-24	11	-1	0	0	0	1	0
16.699999999999999	-18	10	1	1	0	0	167	0
60.5	-18	10	1	2	0	0	167	0
169.5	0	9	4	0	0	0	1	0
32.5	-6.1999999999999993	9	0.20000000000000001	0	0	0	1	0
35.5	-3.1999999999999993	9	0.20000000000000001	0	0	0	1	0
35.5	1.8000000000000007	9	0.20000000000000001	0	0	0	1	0
40.700000000000003	26.899999999999999	12	-1	0	0	0	1	0
