[Format]      =  4.0
[Frequency]   =  0
[Precision]   =  1e-008
[MinAngle]    =  30
[DoSmartMesh] =  1
[Depth]       =  1
[LengthUnits] =  millimeters
[ProblemType] =  planar
[Coordinates] =  cartesian
[ACSolver]    =  0
[PrevType]    =  0
[PrevSoln]    =  ""
[Comment]     =  "Add comments here."
[PointProps]   = 0
[BdryProps]   = 1
  <BeginBdry>
    <BdryName> = "Boundary"
    <BdryType> = 0
    <A_0> = 0
    <A_1> = 0
    <A_2> = 0
    <Phi> = 0
    <c0> = 0
    <c0i> = 0
    <c1> = 0
    <c1i> = 0
    <Mu_ssd> = 0
    <Sigma_ssd> = 0
    <innerangle> = 0
    <outerangle> = 0
  <EndBdry>
[BlockProps]  = 4
  <BeginBlock>
    <BlockName> = "Air"
    <Mu_x> = 1
    <Mu_y> = 1
    <H_c> = 0
    <H_cAngle> = 0
    <J_re> = 0
    <J_im> = 0
    <Sigma> = 0
    <d_lam> = 0
    <Phi_h> = 0
    <Phi_hx> = 0
    <Phi_hy> = 0
    <LamType> = 0
    <LamFill> = 1
    <NStrands> = 0
    <WireD> = 0
    <BHPoints> = 0
  <EndBlock>
  <BeginBlock>
    <BlockName> = "1020 Steel"
    <Mu_x> = 760
    <Mu_y> = 760
    <H_c> = 0
    <H_cAngle> = 0
    <J_re> = 0
    <J_im> = 0
    <Sigma> = 5.7999999999999998
    <d_lam> = 0
    <Phi_h> = 20
    <Phi_hx> = 0
    <Phi_hy> = 0
    <LamType> = 0
    <LamFill> = 1
    <NStrands> = 0
    <WireD> = 0
    <BHPoints> = 38
      0	0
      0.16625200000000001	79.577472
      0.20872499999999999	100.182101
      0.26163500000000001	126.121793
      0.32714599999999999	158.77793
      0.407495	199.88957099999999
      0.50460400000000005	251.646061
      0.61936599999999997	316.80362000000002
      0.750502	398.83212800000001
      0.89319499999999996	502.09990099999999
      1.0382579999999999	632.10632499999997
      1.173276	795.77471500000001
      1.2867310000000001	1001.821011
      1.3735329999999999	1261.2179289999999
      1.4376580000000001	1587.779301
      1.4891890000000001	1998.89571
      1.5383439999999999	2516.4606050000002
      1.591321	3168.036204
      1.6497230000000001	3988.3212819999999
      1.711927	5020.9990129999996
      1.7747120000000001	6321.0632500000002
      1.8349759999999999	7957.747155
      1.8914420000000001	10018.210114
      1.945262	12612.179292999999
      1.998705	15877.793009999999
      2.0528520000000001	19988.957103000001
      2.1061839999999998	25164.606051999999
      2.1551490000000002	31680.362036999999
      2.1963750000000002	39883.212823000002
      2.2290079999999999	50209.990126999997
      2.2554500000000002	63210.632496999999
      2.2800530000000001	79577.471546000001
      2.3071359999999999	100182.101136
      2.3399749999999999	126121.79292599999
      2.3810440000000002	158777.930096
      2.4327079999999999	199889.57102999999
      2.4977480000000001	251646.06052200001
      2.5796269999999999	316803.62037000002
  <EndBlock>
  <BeginBlock>
    <BlockName> = "1.25mm"
    <Mu_x> = 1
    <Mu_y> = 1
    <H_c> = 0
    <H_cAngle> = 0
    <J_re> = 0
    <J_im> = 0
    <Sigma> = 58
    <d_lam> = 0
    <Phi_h> = 0
    <Phi_hx> = 0
    <Phi_hy> = 0
    <LamType> = 0
    <LamFill> = 1
    <NStrands> = 1
    <WireD> = 1.25
    <BHPoints> = 0
  <EndBlock>
  <BeginBlock>
    <BlockName> = "1.6mm"
    <Mu_x> = 1
    <Mu_y> = 1
    <H_c> = 0
    <H_cAngle> = 0
    <J_re> = 0
    <J_im> = 0
    <Sigma> = 58
    <d_lam> = 0
    <Phi_h> = 0
    <Phi_hx> = 0
    <Phi_hy> = 0
    <LamType> = 3
    <LamFill> = 1
    <NStrands> = 1
    <WireD> = 1.6000000000000001
    <BHPoints> = 0
  <EndBlock>
[CircuitProps]  = 2
  <BeginCircuit>
    <CircuitName> = "Circuit"
    <TotalAmps_re> = 1
    <TotalAmps_im> = 0
    <CircuitType> = 1
  <EndCircuit>
  <BeginCircuit>
    <CircuitName> = "Trim Circuit"
    <TotalAmps_re> = 0.10000000000000001
    <TotalAmps_im> = 0
    <CircuitType> = 1
  <EndCircuit>
[NumPoints] = 36
0	30	0	0
30	30	0	0
10	10	0	0
20	10	0	0
10	29	0	0
20	29	0	0
5.5	30	0	0
5.5	28	0	0
24.5	30	0	0
24.5	28	0	0
-10	-10	0	0
40	-10	0	0
-10	40	0	0
40	40	0	0
0	5	0	0
30	5	0	0
10.5	12.5	0	0
19.5	12.5	0	0
10.5	29	0	0
12.5	29	0	0
17.5	29	0	0
19.5	29	0	0
13.5	17.5	0	0
16.5	17.5	0	0
13.5	27	0	0
16.5	27	0	0
22	29	0	0
8	29	0	0
4.2000000000000002	24	0	0
7.7000000000000002	23.5	0	0
22.300000000000001	23.5	0	0
25.800000000000001	24	0	0
2.7000000000000002	8	0	0
6.2000000000000002	7.5	0	0
23.800000000000001	7.5	0	0
27.300000000000001	8	0	0
[NumSegments] = 38
0	14	-1	0	0	0
2	3	-1	0	0	0
4	2	-1	0	0	0
5	3	-1	0	0	0
0	6	-1	0	0	0
6	7	-1	0	0	0
1	8	-1	0	0	0
8	9	-1	0	0	0
12	10	-1	1	0	0
10	11	-1	1	0	0
11	13	-1	1	0	0
13	12	-1	1	0	0
15	1	-1	0	0	0
14	15	-1	0	0	0
17	21	-1	0	0	0
18	16	-1	0	0	0
18	19	-1	0	0	0
20	21	-1	0	0	0
22	23	-1	0	0	0
19	24	-1	0	0	0
24	22	-1	0	0	0
23	25	-1	0	0	0
25	20	-1	0	0	0
16	17	-1	0	0	0
4	27	-1	0	0	0
5	26	-1	0	0	0
7	28	-1	0	0	0
27	29	-1	0	0	0
28	29	-1	0	0	0
26	30	-1	0	0	0
9	31	-1	0	0	0
31	30	-1	0	0	0
28	32	-1	0	0	0
29	33	-1	0	0	0
32	33	-1	0	0	0
30	34	-1	0	0	0
31	35	-1	0	0	0
35	34	-1	0	0	0
[NumArcSegments] = 0
[NumHoles] = 0
[NumBlockLabels] = 5
4.9000000000000004	18.800000000000001	3	-1	1	0	0	200	0
24.899999999999999	19	3	-1	1	0	0	200	0
14.4	31.800000000000001	1	-1	0	0	0	1	0
15.1	7.5	2	-1	0	0	0	1	0
14.800000000000001	14.800000000000001	1	-1	0	0	0	1	0
